/*--------------------------------*- C++ -*----------------------------------*\
  =========                 |
  \\      /  F ield         | OpenFOAM: The Open Source CFD Toolbox
   \\    /   O peration     | Website:  https://openfoam.org
    \\  /    A nd           | Version:  9
     \\/     M anipulation  |
\*---------------------------------------------------------------------------*/
FoamFile
{
    format      ascii;
    class       dictionary;
    object      blockMeshDict;
}
// * * * * * * * * * * * * * * * * * * * * * * * * * * * * * * * * * * * * * //

convertToMeters 1;

vertices
(
    (0.0 0.0 0.0)
    (100 0.0 0.0)
    (100 100 0.0)
    (0.0 100 0.0)
    (0.0 0.0 1)
    (100 0.0 1)
    (100 100 1)
    (0.0 100 1)
);

blocks
(
    hex (0 1 2 3 4 5 6 7) (75 75 10) simpleGrading (1 1 1)
);

edges
(
);

patches
(
    wall walls
    (
        (3 7 6 2)
        (0 4 7 3)
        (2 6 5 1)
        (1 5 4 0)
    )
    wall inlet
    (
        (0 3 2 1)
    )
    wall outlet
    (
        (4 5 6 7)
    )
);

mergePatchPairs
(
);

// ************************************************************************* //
