/*--------------------------------*- C++ -*----------------------------------*\
  =========                 |
  \\      /  F ield         | OpenFOAM: The Open Source CFD Toolbox
   \\    /   O peration     | Website:  https://openfoam.org
    \\  /    A nd           | Version:  9
     \\/     M anipulation  |
\*---------------------------------------------------------------------------*/
FoamFile
{
    format      ascii;
    class       volScalarField;
    object      T;
}
// * * * * * * * * * * * * * * * * * * * * * * * * * * * * * * * * * * * * * //

dimensions      [0 0 0 1 0 0 0];

internalField   uniform 300;

boundaryField
{
    walls
    {
         type            fixedValue;
         value           uniform 300;
    }

    outlet
    {
        type            zeroGradient;
    }

    inlet
    {
//         type            fixedValue;
//         value           uniform 300;

         type            laserConvection;
         value           uniform 300;
 
         HTCheating      150;//23;
         HTCquenching    15000;//23;
 
         TfH             1000;//300;
         TfQ             990;//290;
 
         heatingTime     3;
 
         source1
         {
             power       500;//350;
             spotCenter  (0.10 0.10 0);
             normal      (0 1 0);  //- Not used
 
             sigmaX      0.0015;
             sigmaY      0.0015;
 
             correlation 0;
 
              motion
              {
////                    mode    circle;
////                    center  (10 10 0);
////                    omega   10;
////                    nCycles 5;
                   active  true;
   
                   start   0.0;
 
                  mode linear;
                  points
                  {
                    p0  (10 50 0);
                    p1  (90 50 0);
////                     p2  (0.05 0.02 0);
////                     p3  (0 0.02 0);
                  }
                  linearVelocity 1.5;
              }
         }


        powerReduceName   none;
        kName             k;

         kValue          10;
    }
}

// ************************************************************************* //
